<?xml version="1.0" encoding="UTF-8"?>

<!-- generated on 2026-04-11 21:29:41 by Eclipse SUMO netedit Version 1.22.0
-->

<routes xmlns:xsi="http://www.w3.org/2001/XMLSchema-instance" xsi:noNamespaceSchemaLocation="http://sumo.dlr.de/xsd/routes_file.xsd">
    <!-- Vehicles, persons and containers (sorted by depart) -->
    <flow id="f_0" begin="0.00" color="grey" from="-E0" to="-E0.54" end="3600.00" vehsPerHour="500"/>
    <flow id="f_1" begin="0.00" color="red" from="E0" to="E0.56" end="3600.00" vehsPerHour="500"/>
    <flow id="f_2" begin="0.00" color="green" from="E0" to="E1" end="3600.00" vehsPerHour="500"/>
    <flow id="f_3" begin="0.00" color="grey" from="-E1" to="E0.56" end="3600.00" vehsPerHour="500"/>
    <flow id="f_4" begin="0.00" color="grey" from="-E2" to="E1" end="3600.00" vehsPerHour="500"/>
    <flow id="f_5" begin="0.00" color="grey" from="E2" to="E2" end="3600.00" vehsPerHour="500"/>
    <flow id="f_6" begin="0.00" color="grey" from="E1" to="E1" end="3600.00" vehsPerHour="500"/>
    <flow id="f_7" begin="0.00" color="grey" from="E0.56" to="E0.56" end="3600.00" vehsPerHour="500"/>
</routes>
