<?xml version="1.0" encoding="UTF-8"?>

<!-- generated on 2026-05-09 15:27:47 by Eclipse SUMO sumo Version 1.22.0
-->

<sumoConfiguration xmlns:xsi="http://www.w3.org/2001/XMLSchema-instance" xsi:noNamespaceSchemaLocation="http://sumo.dlr.de/xsd/sumoConfiguration.xsd">

    <input>
        <net-file value="Sumo2Unity.net.xml"/>
        <route-files value="Sumo2Unity.rou.xml"/>
        <additional-files value="Sumo2Unity.add.xml"/>
    </input>

</sumoConfiguration>
