<?xml version="1.0" encoding="UTF-8"?>

<!-- generated on 2026-04-11 21:29:17 by Eclipse SUMO netedit Version 1.22.0
-->

<additional xmlns:xsi="http://www.w3.org/2001/XMLSchema-instance" xsi:noNamespaceSchemaLocation="http://sumo.dlr.de/xsd/additional_file.xsd">
    <!-- Shapes -->
    <poly id="po_0" type="roadside" color="white" fill="0" lineWidth="10.00" layer="0.00" shape="-138.140099,58.890889 85.713110,59.316466 86.138686,-53.035715 -137.288946,-53.461292 -137.714523,58.890889"/>
    <poly id="po_1" type="terrain" color="white" fill="1" lineWidth="10.00" layer="0.00" shape="-73.559814,3.582705 -22.675408,3.582705 -21.146692,47.260306 -13.284724,47.041918 -14.376664,4.237869 51.576514,2.490765 51.576514,-5.807979 -15.905380,-5.371203 -14.813440,-40.750060 -22.457020,-40.750060 -21.583468,-6.026367 -75.525306,-5.589591 -75.743694,3.582705 -73.341426,3.582705"/>
    <poly id="po_2" type="desidential" color="blue" fill="1" layer="0.00" shape="-0.678908,40.591102 64.859864,40.165526 65.285441,10.375175 -1.104485,11.226328 -0.678908,40.165526"/>
    <poly id="po_4" type="wood" color="128,69,0" fill="1" lineWidth="10.00" layer="0.00" shape="-78.406941,-16.957422 -28.728037,-16.957422 -28.463787,-40.739876 -79.728188,-39.947127 -78.142691,-16.957422"/>
</additional>
